Version 4
SHEET 1 1660 680
WIRE 1280 -160 624 -160
WIRE 208 -80 -320 -80
WIRE 1136 -80 576 -80
WIRE 1184 -32 784 -32
WIRE 160 48 96 48
WIRE 544 64 464 64
WIRE 208 96 208 -80
WIRE 208 96 64 96
WIRE -144 112 -224 112
WIRE -64 112 -144 112
WIRE 16 112 16 48
WIRE 32 112 16 112
WIRE 576 112 576 -80
WIRE 576 112 432 112
WIRE 1280 112 1280 -160
WIRE 160 128 160 48
WIRE 160 128 96 128
WIRE 224 128 160 128
WIRE 304 128 224 128
WIRE 384 128 384 64
WIRE 400 128 384 128
WIRE 784 128 784 -32
WIRE -144 144 -144 112
WIRE -48 144 -80 144
WIRE 32 144 -48 144
WIRE 544 144 544 64
WIRE 544 144 464 144
WIRE 624 144 624 -160
WIRE 624 144 544 144
WIRE 752 144 624 144
WIRE 224 160 224 128
WIRE 320 160 288 160
WIRE 400 160 320 160
WIRE 896 160 816 160
WIRE 992 160 896 160
WIRE 752 176 688 176
WIRE 1280 208 1280 176
WIRE 1392 208 1280 208
WIRE 432 224 432 176
WIRE 736 224 432 224
WIRE 784 224 784 192
WIRE 784 224 736 224
WIRE 688 256 688 176
WIRE 752 256 688 256
WIRE 752 272 752 256
WIRE 896 272 896 160
WIRE 896 272 832 272
WIRE 1280 320 1280 288
WIRE 64 352 64 160
WIRE 736 352 736 224
WIRE 736 352 64 352
WIRE -224 368 -224 112
WIRE 992 368 992 160
WIRE 992 368 -224 368
WIRE 1136 384 1136 -80
WIRE 1136 384 -16 384
WIRE -16 400 -16 384
WIRE 1184 400 1184 -32
WIRE 1184 400 -16 400
WIRE -320 432 -320 -80
WIRE -16 432 -16 400
WIRE -16 432 -320 432
WIRE 736 432 736 352
FLAG 320 240 0
FLAG -48 224 0
FLAG -16 512 0
FLAG 736 512 0
FLAG 1440 176 0
FLAG 1440 48 0
FLAG 1280 400 0
FLAG 1440 304 0
FLAG 688 336 0
SYMBOL LM741 -896 144 R0
SYMATTR InstName U1
SYMBOL res 32 96 R90
WINDOW 0 0 56 VBottom 2
WINDOW 3 32 56 VTop 2
SYMATTR InstName R1
SYMATTR Value 4.7k
SYMBOL res 112 32 R90
WINDOW 0 0 56 VBottom 2
WINDOW 3 32 56 VTop 2
SYMATTR InstName R2
SYMATTR Value 18.8k
SYMBOL cap -80 128 R90
WINDOW 0 0 32 VBottom 2
WINDOW 3 32 32 VTop 2
SYMATTR InstName C1
SYMATTR Value 1n
SYMBOL res -64 128 R0
SYMATTR InstName R3
SYMATTR Value 1592
SYMBOL LM741 -624 0 R0
SYMATTR InstName U2
SYMBOL res 400 112 R90
WINDOW 0 0 56 VBottom 2
WINDOW 3 32 56 VTop 2
SYMATTR InstName R4
SYMATTR Value 4.7k
SYMBOL res 480 48 R90
WINDOW 0 0 56 VBottom 2
WINDOW 3 32 56 VTop 2
SYMATTR InstName R5
SYMATTR Value 18.8k
SYMBOL cap 288 144 R90
WINDOW 0 0 32 VBottom 2
WINDOW 3 32 32 VTop 2
SYMATTR InstName C2
SYMATTR Value 1n
SYMBOL res 304 144 R0
SYMATTR InstName R6
SYMATTR Value 1592
SYMBOL LM741 -624 288 R0
SYMATTR InstName U3
SYMBOL voltage -16 416 R0
WINDOW 123 0 0 Left 0
WINDOW 39 0 0 Left 0
SYMATTR InstName V1
SYMATTR Value 12
SYMBOL voltage 736 528 R180
WINDOW 0 24 96 Left 2
WINDOW 3 24 16 Left 2
WINDOW 123 0 0 Left 0
WINDOW 39 0 0 Left 0
SYMATTR InstName V2
SYMATTR Value 12
SYMBOL nmos4 1392 128 R0
SYMATTR InstName M1
SYMATTR Value2 l=0.18u w=1.8u ad=0.81p as=0.81p pd=4.5u ps=4.5u
SYMBOL voltage 1440 208 R0
WINDOW 123 0 0 Left 0
WINDOW 39 0 0 Left 0
SYMATTR InstName V3
SYMATTR Value SINE(0 0.1 100k)
SYMBOL voltage 1280 304 R0
WINDOW 123 0 0 Left 0
WINDOW 39 0 0 Left 0
SYMATTR InstName V4
SYMATTR Value 0.7
SYMBOL res 1424 32 R0
SYMATTR InstName R9
SYMATTR Value 1k
SYMBOL res 1264 192 R0
SYMATTR InstName R10
SYMATTR Value 220k
SYMBOL cap 1264 112 R0
SYMATTR InstName C3
SYMATTR Value 1µ
SYMBOL res 848 256 R90
WINDOW 0 0 56 VBottom 2
WINDOW 3 32 56 VTop 2
SYMATTR InstName R7
SYMATTR Value 4.7k
SYMBOL res 704 352 R180
WINDOW 0 36 76 Left 2
WINDOW 3 36 40 Left 2
SYMATTR InstName R8
SYMATTR Value 4.7k
SYMBOL OpAmps\\UniversalOpAmp 784 160 R0
SYMATTR InstName U4
SYMBOL OpAmps\\UniversalOpAmp 432 144 R0
SYMATTR InstName U5
SYMBOL OpAmps\\UniversalOpAmp 64 128 R0
SYMATTR InstName U6
TEXT -320 584 Left 2 !.lib C:\\users\\vsoham\\Desktop\\TSMC_180nm(1).txt
